[root]
type=Root
children=system
eventq_index=0
full_system=false
sim_quantum=0
time_sync_enable=false
time_sync_period=100000000000
time_sync_spin_threshold=100000000

[system]
type=System
children=clk_domain cpu0 cpu1 cpu2 cpu3 cpu_clk_domain cpu_voltage_domain dvfs_handler noc_network voltage_domain
byte_order=little
cache_line_size=64
eventq_index=0
exit_on_work_items=false
init_param=0
kvm_vm=Null
m5ops_base=4294901760
mem_mode=timing
mem_ranges=
memories=system.noc_network.socket_controllers1.mem_ctrl.nvm system.noc_network.socket_controllers3.mem_ctrl.nvm
mmap_using_noreserve=false
multi_thread=false
num_work_ids=16
readfile=
redirect_paths=
shared_backstore=
symbolfile=
thermal_components=
thermal_model=Null
work_begin_ckpt_count=0
work_begin_cpu_id_exit=-1
work_begin_exit_count=0
work_cpus_ckpt_count=0
work_end_ckpt_count=0
work_end_exit_count=0
work_item_id=-1
workload=Null
system_port=system.noc_network.sys_port_proxy.in_ports[0]

[system.clk_domain]
type=SrcClockDomain
clock=1000
domain_id=-1
eventq_index=0
init_perf_level=0
voltage_domain=system.voltage_domain

[system.cpu0]
type=TimingSimpleCPU
children=dtb interrupts isa itb power_state tracer workload
branchPred=Null
checker=Null
clk_domain=system.cpu_clk_domain
cpu_id=-1
do_checkpoint_insts=true
do_statistics_insts=true
dtb=system.cpu0.dtb
eventq_index=0
function_trace=false
function_trace_start=0
interrupts=system.cpu0.interrupts
isa=system.cpu0.isa
itb=system.cpu0.itb
max_insts_all_threads=0
max_insts_any_thread=0
numThreads=1
power_gating_on_idle=false
power_model=
power_state=system.cpu0.power_state
progress_interval=0
pwr_gating_latency=300
simpoint_start_insts=
socket_id=0
switched_out=false
syscallRetryLatency=10000
system=system
tracer=system.cpu0.tracer
wait_for_remote_gdb=false
workload=system.cpu0.workload
dcache_port=system.noc_network.socket_controllers0.sequencer.in_ports[1]
icache_port=system.noc_network.socket_controllers0.sequencer.in_ports[0]

[system.cpu0.dtb]
type=X86TLB
children=walker
eventq_index=0
size=64
system=system
walker=system.cpu0.dtb.walker

[system.cpu0.dtb.walker]
type=X86PagetableWalker
children=power_state
clk_domain=system.cpu_clk_domain
eventq_index=0
num_squash_per_cycle=4
power_model=
power_state=system.cpu0.dtb.walker.power_state
system=system
port=system.noc_network.socket_controllers0.sequencer.in_ports[4]

[system.cpu0.dtb.walker.power_state]
type=PowerState
clk_gate_bins=20
clk_gate_max=1000000000000
clk_gate_min=1000
default_state=UNDEFINED
eventq_index=0
leaders=
possible_states=

[system.cpu0.interrupts]
type=X86LocalApic
children=clk_domain
clk_domain=system.cpu0.interrupts.clk_domain
eventq_index=0
int_latency=1000
pio_latency=100000
system=system
int_requestor=system.noc_network.socket_controllers0.sequencer.in_ports[2]
int_responder=system.noc_network.socket_controllers0.sequencer.interrupt_out_port[1]
pio=system.noc_network.socket_controllers0.sequencer.interrupt_out_port[0]

[system.cpu0.interrupts.clk_domain]
type=DerivedClockDomain
clk_divider=16
clk_domain=system.cpu_clk_domain
eventq_index=0

[system.cpu0.isa]
type=X86ISA
eventq_index=0

[system.cpu0.itb]
type=X86TLB
children=walker
eventq_index=0
size=64
system=system
walker=system.cpu0.itb.walker

[system.cpu0.itb.walker]
type=X86PagetableWalker
children=power_state
clk_domain=system.cpu_clk_domain
eventq_index=0
num_squash_per_cycle=4
power_model=
power_state=system.cpu0.itb.walker.power_state
system=system
port=system.noc_network.socket_controllers0.sequencer.in_ports[3]

[system.cpu0.itb.walker.power_state]
type=PowerState
clk_gate_bins=20
clk_gate_max=1000000000000
clk_gate_min=1000
default_state=UNDEFINED
eventq_index=0
leaders=
possible_states=

[system.cpu0.power_state]
type=PowerState
clk_gate_bins=20
clk_gate_max=1000000000000
clk_gate_min=1000
default_state=UNDEFINED
eventq_index=0
leaders=
possible_states=ON CLK_GATED OFF

[system.cpu0.tracer]
type=ExeTracer
eventq_index=0

[system.cpu0.workload]
type=Process
cmd=../benchmarks/fft/fft
cwd=/home/gem5/Desktop/project/gem5-20.1
drivers=
egid=100
env=
errout=cerr
euid=100
eventq_index=0
executable=
gid=100
input=cin
kvmInSE=false
maxStackSize=67108864
output=cout
pgid=100
pid=100
ppid=0
release=5.1.0
simpoint=0
system=system
uid=100
useArchPT=false

[system.cpu1]
type=TimingSimpleCPU
children=dtb interrupts isa itb power_state tracer workload
branchPred=Null
checker=Null
clk_domain=system.cpu_clk_domain
cpu_id=-1
do_checkpoint_insts=true
do_statistics_insts=true
dtb=system.cpu1.dtb
eventq_index=0
function_trace=false
function_trace_start=0
interrupts=system.cpu1.interrupts
isa=system.cpu1.isa
itb=system.cpu1.itb
max_insts_all_threads=0
max_insts_any_thread=0
numThreads=1
power_gating_on_idle=false
power_model=
power_state=system.cpu1.power_state
progress_interval=0
pwr_gating_latency=300
simpoint_start_insts=
socket_id=0
switched_out=false
syscallRetryLatency=10000
system=system
tracer=system.cpu1.tracer
wait_for_remote_gdb=false
workload=system.cpu1.workload
dcache_port=system.noc_network.socket_controllers2.sequencer.in_ports[1]
icache_port=system.noc_network.socket_controllers2.sequencer.in_ports[0]

[system.cpu1.dtb]
type=X86TLB
children=walker
eventq_index=0
size=64
system=system
walker=system.cpu1.dtb.walker

[system.cpu1.dtb.walker]
type=X86PagetableWalker
children=power_state
clk_domain=system.cpu_clk_domain
eventq_index=0
num_squash_per_cycle=4
power_model=
power_state=system.cpu1.dtb.walker.power_state
system=system
port=system.noc_network.socket_controllers2.sequencer.in_ports[4]

[system.cpu1.dtb.walker.power_state]
type=PowerState
clk_gate_bins=20
clk_gate_max=1000000000000
clk_gate_min=1000
default_state=UNDEFINED
eventq_index=0
leaders=
possible_states=

[system.cpu1.interrupts]
type=X86LocalApic
children=clk_domain
clk_domain=system.cpu1.interrupts.clk_domain
eventq_index=0
int_latency=1000
pio_latency=100000
system=system
int_requestor=system.noc_network.socket_controllers2.sequencer.in_ports[2]
int_responder=system.noc_network.socket_controllers2.sequencer.interrupt_out_port[1]
pio=system.noc_network.socket_controllers2.sequencer.interrupt_out_port[0]

[system.cpu1.interrupts.clk_domain]
type=DerivedClockDomain
clk_divider=16
clk_domain=system.cpu_clk_domain
eventq_index=0

[system.cpu1.isa]
type=X86ISA
eventq_index=0

[system.cpu1.itb]
type=X86TLB
children=walker
eventq_index=0
size=64
system=system
walker=system.cpu1.itb.walker

[system.cpu1.itb.walker]
type=X86PagetableWalker
children=power_state
clk_domain=system.cpu_clk_domain
eventq_index=0
num_squash_per_cycle=4
power_model=
power_state=system.cpu1.itb.walker.power_state
system=system
port=system.noc_network.socket_controllers2.sequencer.in_ports[3]

[system.cpu1.itb.walker.power_state]
type=PowerState
clk_gate_bins=20
clk_gate_max=1000000000000
clk_gate_min=1000
default_state=UNDEFINED
eventq_index=0
leaders=
possible_states=

[system.cpu1.power_state]
type=PowerState
clk_gate_bins=20
clk_gate_max=1000000000000
clk_gate_min=1000
default_state=UNDEFINED
eventq_index=0
leaders=
possible_states=ON CLK_GATED OFF

[system.cpu1.tracer]
type=ExeTracer
eventq_index=0

[system.cpu1.workload]
type=Process
cmd=../benchmarks/fft/fft
cwd=/home/gem5/Desktop/project/gem5-20.1
drivers=
egid=100
env=
errout=cerr
euid=100
eventq_index=0
executable=
gid=100
input=cin
kvmInSE=false
maxStackSize=67108864
output=cout
pgid=100
pid=101
ppid=0
release=5.1.0
simpoint=0
system=system
uid=100
useArchPT=false

[system.cpu2]
type=TimingSimpleCPU
children=dtb interrupts isa itb power_state tracer workload
branchPred=Null
checker=Null
clk_domain=system.cpu_clk_domain
cpu_id=-1
do_checkpoint_insts=true
do_statistics_insts=true
dtb=system.cpu2.dtb
eventq_index=0
function_trace=false
function_trace_start=0
interrupts=system.cpu2.interrupts
isa=system.cpu2.isa
itb=system.cpu2.itb
max_insts_all_threads=0
max_insts_any_thread=0
numThreads=1
power_gating_on_idle=false
power_model=
power_state=system.cpu2.power_state
progress_interval=0
pwr_gating_latency=300
simpoint_start_insts=
socket_id=0
switched_out=false
syscallRetryLatency=10000
system=system
tracer=system.cpu2.tracer
wait_for_remote_gdb=false
workload=system.cpu2.workload
dcache_port=system.noc_network.socket_controllers4.sequencer.in_ports[1]
icache_port=system.noc_network.socket_controllers4.sequencer.in_ports[0]

[system.cpu2.dtb]
type=X86TLB
children=walker
eventq_index=0
size=64
system=system
walker=system.cpu2.dtb.walker

[system.cpu2.dtb.walker]
type=X86PagetableWalker
children=power_state
clk_domain=system.cpu_clk_domain
eventq_index=0
num_squash_per_cycle=4
power_model=
power_state=system.cpu2.dtb.walker.power_state
system=system
port=system.noc_network.socket_controllers4.sequencer.in_ports[4]

[system.cpu2.dtb.walker.power_state]
type=PowerState
clk_gate_bins=20
clk_gate_max=1000000000000
clk_gate_min=1000
default_state=UNDEFINED
eventq_index=0
leaders=
possible_states=

[system.cpu2.interrupts]
type=X86LocalApic
children=clk_domain
clk_domain=system.cpu2.interrupts.clk_domain
eventq_index=0
int_latency=1000
pio_latency=100000
system=system
int_requestor=system.noc_network.socket_controllers4.sequencer.in_ports[2]
int_responder=system.noc_network.socket_controllers4.sequencer.interrupt_out_port[1]
pio=system.noc_network.socket_controllers4.sequencer.interrupt_out_port[0]

[system.cpu2.interrupts.clk_domain]
type=DerivedClockDomain
clk_divider=16
clk_domain=system.cpu_clk_domain
eventq_index=0

[system.cpu2.isa]
type=X86ISA
eventq_index=0

[system.cpu2.itb]
type=X86TLB
children=walker
eventq_index=0
size=64
system=system
walker=system.cpu2.itb.walker

[system.cpu2.itb.walker]
type=X86PagetableWalker
children=power_state
clk_domain=system.cpu_clk_domain
eventq_index=0
num_squash_per_cycle=4
power_model=
power_state=system.cpu2.itb.walker.power_state
system=system
port=system.noc_network.socket_controllers4.sequencer.in_ports[3]

[system.cpu2.itb.walker.power_state]
type=PowerState
clk_gate_bins=20
clk_gate_max=1000000000000
clk_gate_min=1000
default_state=UNDEFINED
eventq_index=0
leaders=
possible_states=

[system.cpu2.power_state]
type=PowerState
clk_gate_bins=20
clk_gate_max=1000000000000
clk_gate_min=1000
default_state=UNDEFINED
eventq_index=0
leaders=
possible_states=ON CLK_GATED OFF

[system.cpu2.tracer]
type=ExeTracer
eventq_index=0

[system.cpu2.workload]
type=Process
cmd=../benchmarks/fft/fft
cwd=/home/gem5/Desktop/project/gem5-20.1
drivers=
egid=100
env=
errout=cerr
euid=100
eventq_index=0
executable=
gid=100
input=cin
kvmInSE=false
maxStackSize=67108864
output=cout
pgid=100
pid=102
ppid=0
release=5.1.0
simpoint=0
system=system
uid=100
useArchPT=false

[system.cpu3]
type=TimingSimpleCPU
children=dtb interrupts isa itb power_state tracer workload
branchPred=Null
checker=Null
clk_domain=system.cpu_clk_domain
cpu_id=-1
do_checkpoint_insts=true
do_statistics_insts=true
dtb=system.cpu3.dtb
eventq_index=0
function_trace=false
function_trace_start=0
interrupts=system.cpu3.interrupts
isa=system.cpu3.isa
itb=system.cpu3.itb
max_insts_all_threads=0
max_insts_any_thread=0
numThreads=1
power_gating_on_idle=false
power_model=
power_state=system.cpu3.power_state
progress_interval=0
pwr_gating_latency=300
simpoint_start_insts=
socket_id=0
switched_out=false
syscallRetryLatency=10000
system=system
tracer=system.cpu3.tracer
wait_for_remote_gdb=false
workload=system.cpu3.workload
dcache_port=system.noc_network.socket_controllers5.sequencer.in_ports[1]
icache_port=system.noc_network.socket_controllers5.sequencer.in_ports[0]

[system.cpu3.dtb]
type=X86TLB
children=walker
eventq_index=0
size=64
system=system
walker=system.cpu3.dtb.walker

[system.cpu3.dtb.walker]
type=X86PagetableWalker
children=power_state
clk_domain=system.cpu_clk_domain
eventq_index=0
num_squash_per_cycle=4
power_model=
power_state=system.cpu3.dtb.walker.power_state
system=system
port=system.noc_network.socket_controllers5.sequencer.in_ports[4]

[system.cpu3.dtb.walker.power_state]
type=PowerState
clk_gate_bins=20
clk_gate_max=1000000000000
clk_gate_min=1000
default_state=UNDEFINED
eventq_index=0
leaders=
possible_states=

[system.cpu3.interrupts]
type=X86LocalApic
children=clk_domain
clk_domain=system.cpu3.interrupts.clk_domain
eventq_index=0
int_latency=1000
pio_latency=100000
system=system
int_requestor=system.noc_network.socket_controllers5.sequencer.in_ports[2]
int_responder=system.noc_network.socket_controllers5.sequencer.interrupt_out_port[1]
pio=system.noc_network.socket_controllers5.sequencer.interrupt_out_port[0]

[system.cpu3.interrupts.clk_domain]
type=DerivedClockDomain
clk_divider=16
clk_domain=system.cpu_clk_domain
eventq_index=0

[system.cpu3.isa]
type=X86ISA
eventq_index=0

[system.cpu3.itb]
type=X86TLB
children=walker
eventq_index=0
size=64
system=system
walker=system.cpu3.itb.walker

[system.cpu3.itb.walker]
type=X86PagetableWalker
children=power_state
clk_domain=system.cpu_clk_domain
eventq_index=0
num_squash_per_cycle=4
power_model=
power_state=system.cpu3.itb.walker.power_state
system=system
port=system.noc_network.socket_controllers5.sequencer.in_ports[3]

[system.cpu3.itb.walker.power_state]
type=PowerState
clk_gate_bins=20
clk_gate_max=1000000000000
clk_gate_min=1000
default_state=UNDEFINED
eventq_index=0
leaders=
possible_states=

[system.cpu3.power_state]
type=PowerState
clk_gate_bins=20
clk_gate_max=1000000000000
clk_gate_min=1000
default_state=UNDEFINED
eventq_index=0
leaders=
possible_states=ON CLK_GATED OFF

[system.cpu3.tracer]
type=ExeTracer
eventq_index=0

[system.cpu3.workload]
type=Process
cmd=../benchmarks/fft/fft
cwd=/home/gem5/Desktop/project/gem5-20.1
drivers=
egid=100
env=
errout=cerr
euid=100
eventq_index=0
executable=
gid=100
input=cin
kvmInSE=false
maxStackSize=67108864
output=cout
pgid=100
pid=103
ppid=0
release=5.1.0
simpoint=0
system=system
uid=100
useArchPT=false

[system.cpu_clk_domain]
type=SrcClockDomain
clock=1000
domain_id=-1
eventq_index=0
init_perf_level=0
voltage_domain=system.cpu_voltage_domain

[system.cpu_voltage_domain]
type=VoltageDomain
eventq_index=0
voltage=1.0

[system.dvfs_handler]
type=DVFSHandler
domains=
enable=false
eventq_index=0
sys_clk_domain=system.clk_domain
transition_latency=100000000

[system.noc_network]
type=RubySystem
children=network power_state socket_controllers0 socket_controllers1 socket_controllers2 socket_controllers3 socket_controllers4 socket_controllers5 sys_port_proxy
access_backing_store=false
all_instructions=false
block_size_bytes=64
clk_domain=system.clk_domain
eventq_index=0
hot_lines=false
memory_size_bits=64
num_of_sequencers=4
number_of_virtual_networks=5
phys_mem=Null
power_model=
power_state=system.noc_network.power_state
randomization=false
system=system

[system.noc_network.network]
type=GarnetNetwork
children=ext_links0 ext_links1 ext_links2 ext_links3 ext_links4 ext_links5 int_links00 int_links01 int_links02 int_links03 int_links04 int_links05 int_links06 int_links07 int_links08 int_links09 int_links10 int_links11 int_links12 int_links13 netifs0 netifs1 netifs2 netifs3 netifs4 netifs5 power_state routers0 routers1 routers2 routers3 routers4 routers5
buffers_per_ctrl_vc=1
buffers_per_data_vc=4
clk_domain=system.clk_domain
control_msg_size=8
enable_fault_model=false
eventq_index=0
ext_links=system.noc_network.network.ext_links0 system.noc_network.network.ext_links1 system.noc_network.network.ext_links2 system.noc_network.network.ext_links3 system.noc_network.network.ext_links4 system.noc_network.network.ext_links5
fault_model=Null
garnet_deadlock_threshold=50000
int_links=system.noc_network.network.int_links00 system.noc_network.network.int_links01 system.noc_network.network.int_links02 system.noc_network.network.int_links03 system.noc_network.network.int_links04 system.noc_network.network.int_links05 system.noc_network.network.int_links06 system.noc_network.network.int_links07 system.noc_network.network.int_links08 system.noc_network.network.int_links09 system.noc_network.network.int_links10 system.noc_network.network.int_links11 system.noc_network.network.int_links12 system.noc_network.network.int_links13
netifs=system.noc_network.network.netifs0 system.noc_network.network.netifs1 system.noc_network.network.netifs2 system.noc_network.network.netifs3 system.noc_network.network.netifs4 system.noc_network.network.netifs5
ni_flit_size=16
num_rows=3
number_of_virtual_networks=5
power_model=
power_state=system.noc_network.network.power_state
routers=system.noc_network.network.routers0 system.noc_network.network.routers1 system.noc_network.network.routers2 system.noc_network.network.routers3 system.noc_network.network.routers4 system.noc_network.network.routers5
routing_algorithm=1
ruby_system=system.noc_network
topology=Not Specified
vcs_per_vnet=4
in_port=system.noc_network.socket_controllers0.requestFromCache.out_port system.noc_network.socket_controllers0.responseFromCache.out_port system.noc_network.socket_controllers1.responseFromDir.out_port system.noc_network.socket_controllers1.forwardFromDir.out_port system.noc_network.socket_controllers1.dmaRequestToDir.out_port system.noc_network.socket_controllers2.requestFromCache.out_port system.noc_network.socket_controllers2.responseFromCache.out_port system.noc_network.socket_controllers3.responseFromDir.out_port system.noc_network.socket_controllers3.forwardFromDir.out_port system.noc_network.socket_controllers3.dmaRequestToDir.out_port system.noc_network.socket_controllers4.requestFromCache.out_port system.noc_network.socket_controllers4.responseFromCache.out_port system.noc_network.socket_controllers5.requestFromCache.out_port system.noc_network.socket_controllers5.responseFromCache.out_port
out_port=system.noc_network.socket_controllers0.forwardToCache.in_port system.noc_network.socket_controllers0.responseToCache.in_port system.noc_network.socket_controllers1.requestToDir.in_port system.noc_network.socket_controllers1.dmaResponseFromDir.in_port system.noc_network.socket_controllers2.forwardToCache.in_port system.noc_network.socket_controllers2.responseToCache.in_port system.noc_network.socket_controllers3.requestToDir.in_port system.noc_network.socket_controllers3.dmaResponseFromDir.in_port system.noc_network.socket_controllers4.forwardToCache.in_port system.noc_network.socket_controllers4.responseToCache.in_port system.noc_network.socket_controllers5.forwardToCache.in_port system.noc_network.socket_controllers5.responseToCache.in_port

[system.noc_network.network.ext_links0]
type=GarnetExtLink
children=credit_links0 credit_links1 network_links0 network_links1
bandwidth_factor=16
credit_links=system.noc_network.network.ext_links0.credit_links0 system.noc_network.network.ext_links0.credit_links1
eventq_index=0
ext_cdc=false
ext_cred_bridge=
ext_net_bridge=
ext_node=system.noc_network.socket_controllers0
ext_serdes=false
int_cdc=false
int_cred_bridge=
int_net_bridge=
int_node=system.noc_network.network.routers0
int_serdes=false
latency=1
link_id=0
network_links=system.noc_network.network.ext_links0.network_links0 system.noc_network.network.ext_links0.network_links1
supported_vnets=
weight=1
width=16

[system.noc_network.network.ext_links0.credit_links0]
type=CreditLink
children=power_state
clk_domain=system.clk_domain
eventq_index=0
link_id=0
link_latency=1
power_model=
power_state=system.noc_network.network.ext_links0.credit_links0.power_state
supported_vnets=
vcs_per_vnet=4
virt_nets=5
width=16

[system.noc_network.network.ext_links0.credit_links0.power_state]
type=PowerState
clk_gate_bins=20
clk_gate_max=1000000000000
clk_gate_min=1000
default_state=UNDEFINED
eventq_index=0
leaders=
possible_states=

[system.noc_network.network.ext_links0.credit_links1]
type=CreditLink
children=power_state
clk_domain=system.clk_domain
eventq_index=0
link_id=0
link_latency=1
power_model=
power_state=system.noc_network.network.ext_links0.credit_links1.power_state
supported_vnets=
vcs_per_vnet=4
virt_nets=5
width=16

[system.noc_network.network.ext_links0.credit_links1.power_state]
type=PowerState
clk_gate_bins=20
clk_gate_max=1000000000000
clk_gate_min=1000
default_state=UNDEFINED
eventq_index=0
leaders=
possible_states=

[system.noc_network.network.ext_links0.network_links0]
type=NetworkLink
children=power_state
clk_domain=system.clk_domain
eventq_index=0
link_id=0
link_latency=1
power_model=
power_state=system.noc_network.network.ext_links0.network_links0.power_state
supported_vnets=
vcs_per_vnet=4
virt_nets=5
width=16

[system.noc_network.network.ext_links0.network_links0.power_state]
type=PowerState
clk_gate_bins=20
clk_gate_max=1000000000000
clk_gate_min=1000
default_state=UNDEFINED
eventq_index=0
leaders=
possible_states=

[system.noc_network.network.ext_links0.network_links1]
type=NetworkLink
children=power_state
clk_domain=system.clk_domain
eventq_index=0
link_id=0
link_latency=1
power_model=
power_state=system.noc_network.network.ext_links0.network_links1.power_state
supported_vnets=
vcs_per_vnet=4
virt_nets=5
width=16

[system.noc_network.network.ext_links0.network_links1.power_state]
type=PowerState
clk_gate_bins=20
clk_gate_max=1000000000000
clk_gate_min=1000
default_state=UNDEFINED
eventq_index=0
leaders=
possible_states=

[system.noc_network.network.ext_links1]
type=GarnetExtLink
children=credit_links0 credit_links1 network_links0 network_links1
bandwidth_factor=16
credit_links=system.noc_network.network.ext_links1.credit_links0 system.noc_network.network.ext_links1.credit_links1
eventq_index=0
ext_cdc=false
ext_cred_bridge=
ext_net_bridge=
ext_node=system.noc_network.socket_controllers1
ext_serdes=false
int_cdc=false
int_cred_bridge=
int_net_bridge=
int_node=system.noc_network.network.routers1
int_serdes=false
latency=1
link_id=1
network_links=system.noc_network.network.ext_links1.network_links0 system.noc_network.network.ext_links1.network_links1
supported_vnets=
weight=1
width=16

[system.noc_network.network.ext_links1.credit_links0]
type=CreditLink
children=power_state
clk_domain=system.clk_domain
eventq_index=0
link_id=1
link_latency=1
power_model=
power_state=system.noc_network.network.ext_links1.credit_links0.power_state
supported_vnets=
vcs_per_vnet=4
virt_nets=5
width=16

[system.noc_network.network.ext_links1.credit_links0.power_state]
type=PowerState
clk_gate_bins=20
clk_gate_max=1000000000000
clk_gate_min=1000
default_state=UNDEFINED
eventq_index=0
leaders=
possible_states=

[system.noc_network.network.ext_links1.credit_links1]
type=CreditLink
children=power_state
clk_domain=system.clk_domain
eventq_index=0
link_id=1
link_latency=1
power_model=
power_state=system.noc_network.network.ext_links1.credit_links1.power_state
supported_vnets=
vcs_per_vnet=4
virt_nets=5
width=16

[system.noc_network.network.ext_links1.credit_links1.power_state]
type=PowerState
clk_gate_bins=20
clk_gate_max=1000000000000
clk_gate_min=1000
default_state=UNDEFINED
eventq_index=0
leaders=
possible_states=

[system.noc_network.network.ext_links1.network_links0]
type=NetworkLink
children=power_state
clk_domain=system.clk_domain
eventq_index=0
link_id=1
link_latency=1
power_model=
power_state=system.noc_network.network.ext_links1.network_links0.power_state
supported_vnets=
vcs_per_vnet=4
virt_nets=5
width=16

[system.noc_network.network.ext_links1.network_links0.power_state]
type=PowerState
clk_gate_bins=20
clk_gate_max=1000000000000
clk_gate_min=1000
default_state=UNDEFINED
eventq_index=0
leaders=
possible_states=

[system.noc_network.network.ext_links1.network_links1]
type=NetworkLink
children=power_state
clk_domain=system.clk_domain
eventq_index=0
link_id=1
link_latency=1
power_model=
power_state=system.noc_network.network.ext_links1.network_links1.power_state
supported_vnets=
vcs_per_vnet=4
virt_nets=5
width=16

[system.noc_network.network.ext_links1.network_links1.power_state]
type=PowerState
clk_gate_bins=20
clk_gate_max=1000000000000
clk_gate_min=1000
default_state=UNDEFINED
eventq_index=0
leaders=
possible_states=

[system.noc_network.network.ext_links2]
type=GarnetExtLink
children=credit_links0 credit_links1 network_links0 network_links1
bandwidth_factor=16
credit_links=system.noc_network.network.ext_links2.credit_links0 system.noc_network.network.ext_links2.credit_links1
eventq_index=0
ext_cdc=false
ext_cred_bridge=
ext_net_bridge=
ext_node=system.noc_network.socket_controllers2
ext_serdes=false
int_cdc=false
int_cred_bridge=
int_net_bridge=
int_node=system.noc_network.network.routers2
int_serdes=false
latency=1
link_id=2
network_links=system.noc_network.network.ext_links2.network_links0 system.noc_network.network.ext_links2.network_links1
supported_vnets=
weight=1
width=16

[system.noc_network.network.ext_links2.credit_links0]
type=CreditLink
children=power_state
clk_domain=system.clk_domain
eventq_index=0
link_id=2
link_latency=1
power_model=
power_state=system.noc_network.network.ext_links2.credit_links0.power_state
supported_vnets=
vcs_per_vnet=4
virt_nets=5
width=16

[system.noc_network.network.ext_links2.credit_links0.power_state]
type=PowerState
clk_gate_bins=20
clk_gate_max=1000000000000
clk_gate_min=1000
default_state=UNDEFINED
eventq_index=0
leaders=
possible_states=

[system.noc_network.network.ext_links2.credit_links1]
type=CreditLink
children=power_state
clk_domain=system.clk_domain
eventq_index=0
link_id=2
link_latency=1
power_model=
power_state=system.noc_network.network.ext_links2.credit_links1.power_state
supported_vnets=
vcs_per_vnet=4
virt_nets=5
width=16

[system.noc_network.network.ext_links2.credit_links1.power_state]
type=PowerState
clk_gate_bins=20
clk_gate_max=1000000000000
clk_gate_min=1000
default_state=UNDEFINED
eventq_index=0
leaders=
possible_states=

[system.noc_network.network.ext_links2.network_links0]
type=NetworkLink
children=power_state
clk_domain=system.clk_domain
eventq_index=0
link_id=2
link_latency=1
power_model=
power_state=system.noc_network.network.ext_links2.network_links0.power_state
supported_vnets=
vcs_per_vnet=4
virt_nets=5
width=16

[system.noc_network.network.ext_links2.network_links0.power_state]
type=PowerState
clk_gate_bins=20
clk_gate_max=1000000000000
clk_gate_min=1000
default_state=UNDEFINED
eventq_index=0
leaders=
possible_states=

[system.noc_network.network.ext_links2.network_links1]
type=NetworkLink
children=power_state
clk_domain=system.clk_domain
eventq_index=0
link_id=2
link_latency=1
power_model=
power_state=system.noc_network.network.ext_links2.network_links1.power_state
supported_vnets=
vcs_per_vnet=4
virt_nets=5
width=16

[system.noc_network.network.ext_links2.network_links1.power_state]
type=PowerState
clk_gate_bins=20
clk_gate_max=1000000000000
clk_gate_min=1000
default_state=UNDEFINED
eventq_index=0
leaders=
possible_states=

[system.noc_network.network.ext_links3]
type=GarnetExtLink
children=credit_links0 credit_links1 network_links0 network_links1
bandwidth_factor=16
credit_links=system.noc_network.network.ext_links3.credit_links0 system.noc_network.network.ext_links3.credit_links1
eventq_index=0
ext_cdc=false
ext_cred_bridge=
ext_net_bridge=
ext_node=system.noc_network.socket_controllers3
ext_serdes=false
int_cdc=false
int_cred_bridge=
int_net_bridge=
int_node=system.noc_network.network.routers3
int_serdes=false
latency=1
link_id=3
network_links=system.noc_network.network.ext_links3.network_links0 system.noc_network.network.ext_links3.network_links1
supported_vnets=
weight=1
width=16

[system.noc_network.network.ext_links3.credit_links0]
type=CreditLink
children=power_state
clk_domain=system.clk_domain
eventq_index=0
link_id=3
link_latency=1
power_model=
power_state=system.noc_network.network.ext_links3.credit_links0.power_state
supported_vnets=
vcs_per_vnet=4
virt_nets=5
width=16

[system.noc_network.network.ext_links3.credit_links0.power_state]
type=PowerState
clk_gate_bins=20
clk_gate_max=1000000000000
clk_gate_min=1000
default_state=UNDEFINED
eventq_index=0
leaders=
possible_states=

[system.noc_network.network.ext_links3.credit_links1]
type=CreditLink
children=power_state
clk_domain=system.clk_domain
eventq_index=0
link_id=3
link_latency=1
power_model=
power_state=system.noc_network.network.ext_links3.credit_links1.power_state
supported_vnets=
vcs_per_vnet=4
virt_nets=5
width=16

[system.noc_network.network.ext_links3.credit_links1.power_state]
type=PowerState
clk_gate_bins=20
clk_gate_max=1000000000000
clk_gate_min=1000
default_state=UNDEFINED
eventq_index=0
leaders=
possible_states=

[system.noc_network.network.ext_links3.network_links0]
type=NetworkLink
children=power_state
clk_domain=system.clk_domain
eventq_index=0
link_id=3
link_latency=1
power_model=
power_state=system.noc_network.network.ext_links3.network_links0.power_state
supported_vnets=
vcs_per_vnet=4
virt_nets=5
width=16

[system.noc_network.network.ext_links3.network_links0.power_state]
type=PowerState
clk_gate_bins=20
clk_gate_max=1000000000000
clk_gate_min=1000
default_state=UNDEFINED
eventq_index=0
leaders=
possible_states=

[system.noc_network.network.ext_links3.network_links1]
type=NetworkLink
children=power_state
clk_domain=system.clk_domain
eventq_index=0
link_id=3
link_latency=1
power_model=
power_state=system.noc_network.network.ext_links3.network_links1.power_state
supported_vnets=
vcs_per_vnet=4
virt_nets=5
width=16

[system.noc_network.network.ext_links3.network_links1.power_state]
type=PowerState
clk_gate_bins=20
clk_gate_max=1000000000000
clk_gate_min=1000
default_state=UNDEFINED
eventq_index=0
leaders=
possible_states=

[system.noc_network.network.ext_links4]
type=GarnetExtLink
children=credit_links0 credit_links1 network_links0 network_links1
bandwidth_factor=16
credit_links=system.noc_network.network.ext_links4.credit_links0 system.noc_network.network.ext_links4.credit_links1
eventq_index=0
ext_cdc=false
ext_cred_bridge=
ext_net_bridge=
ext_node=system.noc_network.socket_controllers4
ext_serdes=false
int_cdc=false
int_cred_bridge=
int_net_bridge=
int_node=system.noc_network.network.routers4
int_serdes=false
latency=1
link_id=4
network_links=system.noc_network.network.ext_links4.network_links0 system.noc_network.network.ext_links4.network_links1
supported_vnets=
weight=1
width=16
